tests/fuzzer/corpus_json/24_columnar_21_random_008.json
{
  "version": "1.0",
  "type": "input",
  "is_batch": false,
  "attributes": {
    "node": [
      "id",
      "u_rated"
    ],
    "source": [
      "id",
      "node",
      "status",
      "u_ref",
      "u_ref_angle",
      "sk",
      "rx_ratio",
      "z01_ratio"
    ],
    "line": [
      "id",
      "from_node",
      "to_node",
      "from_status",
      "to_status",
      "r1",
      "x1",
      "c1",
      "tan1",
      "r0",
      "x0",
      "c0",
      "tan0",
      "i_n"
    ],
    "sym_load": [
      "id",
      "node",
      "status",
      "type",
      "p_specified",
      "q_specified"
    ]
  },
  "data": {
    "node": [
      [
        0,
        10000.0
      ],
      [
        1,
        10000.0
      ],
      [
        2,
        10000.0
      ],
      [
        3,
        10000.0
      ],
      [
        4,
        10000.0
      ]
    ],
    "source": [
      [
        5,
        0,
        1,
        0.9252661797301719,
        0.0,
        962298806.3307993,
        0.35240846143580395,
        1.0
      ],
      [
        6,
        4,
        1,
        1.0,
        0.0,
        247516240.83059216,
        0.1,
        1.0
      ]
    ],
    "line": [
      [
        7,
        0,
        1,
        1,
        1,
        4.995642695812895,
        1.046988159444564,
        6.41868435072107e-07,
        0.0,
        0.3,
        0.3,
        1e-09,
        0.0,
        464.54242514467273
      ],
      [
        8,
        1,
        2,
        1,
        1,
        2.2656621556907144,
        2.4749134694458883,
        1.9223084224268214e-07,
        0.0,
        0.3,
        0.3,
        1e-09,
        0.0,
        832.2160608966419
      ],
      [
        9,
        2,
        3,
        1,
        1,
        0.447828117202948,
        1.1709147974485268,
        1.999130622418077e-08,
        0.0,
        0.3,
        0.3,
        1e-09,
        0.0,
        274.09978639316586
      ],
      [
        10,
        3,
        4,
        1,
        1,
        2.038319314804786,
        4.510321502058142,
        3.7907542084158905e-07,
        0.0,
        0.3,
        0.3,
        1e-09,
        0.0,
        122.59361800799192
      ]
    ],
    "sym_load": [
      [
        11,
        1,
        1,
        0,
        -22726.156383502544,
        6590.644922436048
      ],
      [
        12,
        2,
        1,
        0,
        -32312.28257057193,
        3826.011432119445
      ],
      [
        13,
        3,
        1,
        2,
        3362.227829359399,
        -5841.673525938909
      ]
    ]
  }
}
